.model jjmod jj(Rtype=1, Vg=2.8mV, Cap=0.064pF, R0=100ohm, Rn=16ohm, Icrit=0.1mA)
.model pjjmod jj(Rtype=1, Vg=2.8mV, Cap=0.064pF, R0=100ohm, Rn=16ohm, Icrit=0.1mA, PHI=PI)

** + -------------------- +
** |     SFQ JTL          |
** + -------------------- +
** ADP2 2.5mV ijtl
.subckt ijtl            1       11
L1                      1       10      4.534pH
B1                      10      9       jjmod area=2.13
RS1                     10      9       5.31ohm
LP2                     9       0       0.198pH
L2                      10      11      1.976pH
.ends

** ADP2 2.5mV source
.subckt source          1
L1                      1       2       2.012pH fcheck
L2                      2       3       2.644pH fcheck
Rd                      3       0       4.02ohm
B1                      2       4       jjmod area=2.16
RS1                     2       4       5.2225ohm
LP1                     4       0       0.122pH fcheck
.ends

** ADP2 2.5mV sink
.subckt sink            1       100
LPIN                    1       2       0.317pH fcheck
L1                      2       3       2.272pH fcheck
L2                      3       4       4.776pH fcheck
R2                      4       0       4.08ohm
LPR1                    2       5       0.177pH fcheck
R1                      5       100     8.32ohm
B1                      3       9       jjmod area=2.17
RS1                     3       9       5.207ohm
LP1                     9       0       0.13pH fcheck
.ends

*** HSTP drv_jtl
.subckt drv_jtl     1     2     3
Rins       2     4  1.67ohm
R1         3     5  8.34ohm
L1         1     6  0.842pH fcheck
LPR1       5     6  3.585pH fcheck
LPOUT      7     4  0.959pH fcheck
L2         6     7  2.327pH fcheck
LP1        8     0  0.237pH fcheck
B1         7     8  jjmod area=2.37
RS1        7     8  7.06ohm *SHUNT=16.74
.ends

*** HSTP rec
.subckt rec     1     2     3
R1         3     5  22.92ohm
L1         1     6  0.723pH fcheck
LPR1       5     6  1.849pH fcheck
L2         7     9  5.333pH fcheck
L3         9     2  1.620pH fcheck
LP3        6     7  0.185pH fcheck
LP2        10    0  0.216pH fcheck
LP1        8     0  0.281pH fcheck
B2         9    10  jjmod area=2.13
RS2        9    10  7.04ohm *SHUNT=15.00
B1         7     8  jjmod area=1.39
RS1        7     8  12.03ohm *SHUNT=16.74
.ends

*** HSTP sll (PTL wire)
.subckt sll     1     2
C1         1     0  0.084pF
L1         1     2  1.142pH fcheck
.ends

*** hstp001 ptl sample
*** PORT    din  = 1
*** PORT    dout = 2
* XI0      drv_jtl   1      11    Vb
* XI1        rec     12     2     Vb
* XI4        sll     13     12
* XI3        sll     14     13
* XI2        sll     11     14

** ADP2 2.5mV (betac=2) delay: 3.6 ps
.subckt sfq_jtl         1       5       100
LPIN                    1       2       0.317pH fcheck
L1                      2       3       2.288pH fcheck
L2                      3       4       4.506pH fcheck
L3                      4       5       1.963pH fcheck
B1                      3       7       jjmod area=2.16
RS1                     3       7       5.225ohm
LP1                     7       0       0.096pH fcheck
B2                      4       8       jjmod area=2.16
RS2                     4       8       5.225ohm
LP2                     8       0       0.099pH fcheck
LPR1                    2       6       0.177pH fcheck
R1                      6       100     8.32ohm
.ends

* delay: 5.4 ps
.subckt sfq_3jtl        1       5       100
LPIN                    1       2       0.317pH fcheck
L1                      2       3       2.288pH fcheck
L2                      3       4       4.506pH fcheck
L3                      4       5       4.506pH fcheck
L4                      5       6       1.963pH fcheck
B1                      3       7       jjmod area=2.16
RS1                     3       7       5.225ohm
LP1                     7       0       0.096pH fcheck
B2                      4       8       jjmod area=2.16
RS2                     4       8       5.225ohm
LP2                     8       0       0.099pH fcheck
B3                      5       11      jjmod area=2.16
RS3                     5       11      5.225ohm
LP3                     11      0       0.099pH fcheck
LPR1                    2       9       0.177pH fcheck
R1                      9       100     8.32ohm
LPR2                    4       10      0.177pH fcheck
R2                      10      100     16.64ohm
.ends

.subckt balanced_jtl    1       5       100
LPIN                    1       2       0.317pH fcheck
L1                      2       3       2.288pH fcheck
L2                      3       4       4.506pH fcheck
L3                      4       5       2.963pH fcheck
B1                      3       7       jjmod area=2.16
RS1                     3       7       5.225ohm
LP1                     7       0       0.096pH fcheck
B2                      4       8       jjmod area=2.16
RS2                     4       8       5.225ohm
LP2                     8       0       0.099pH fcheck
* R1                      2       100     16.64ohm
* R2                      4       100     16.64ohm
R1                      2       100     8.32ohm
R2                      4       100     17.5ohm
.ends

* delay: 7.2 ps
.subckt sfq_jtl2        1       3       100
X1      sfq_jtl         1       2       100
X2      sfq_jtl         2       3       100
.ends

* delay: 3.6+4.3= 7.9 ps
.subckt sfq_spl_jtl     1       3       100
X1      sfq_spl         1       2       4      100
X2      sfq_jtl         2       3       100
X3      sink            4       100
.ends

* delay: 9.0 ps
.subckt sfq_3jtl_jtl    1       3       100
X1      sfq_3jtl        1       2       100
X2      sfq_jtl         2       3       100
.ends

* delay: 5.4+4.3= 9.7 ps
.subckt sfq_spl_3jtl    1       3       100
X1      sfq_spl         1       2       4      100
X2      sfq_3jtl        2       3       100
X3      sink            4       100
.ends

* delay: 10.8 ps
.subckt sfq_jtl3        1       4       100
X1      sfq_jtl         1       2       100
X2      sfq_jtl         2       3       100
X3      sfq_jtl         3       4       100
.ends

* delay: 7.2+4.3= 11.5 ps
.subckt sfq_spl_jtl2    1       3       100
X1      sfq_spl         1       2       4      100
X2      sfq_jtl2        2       3       100
X3      sink            4       100
.ends

* delay: 12.6 ps
.subckt sfq_3jtl_jtl2   1       3       100
X1      sfq_3jtl        1       2       100
X2      sfq_jtl2        2       3       100
.ends

* delay: 9.0+4.3= 13.3 ps
.subckt sfq_spl_3j_j    1       3       100
X1      sfq_spl         1       2       4      100
X2      sfq_3jtl_jtl    2       3       100
X3      sink            4       100
.ends

* delay: 14.4 ps
.subckt sfq_jtl4        1       5       100
X1      sfq_jtl         1       2       100
X2      sfq_jtl         2       3       100
X3      sfq_jtl         3       4       100
X4      sfq_jtl         4       5       100
.ends

* delay: 18.0 ps
.subckt sfq_jtl5        1       3       100
X1      sfq_jtl4        1       2       100
X2      sfq_jtl         2       3       100
.ends

* delay: 19.8 ps
.subckt sfq_3jtl_jtl4   1       3       100
X1      sfq_3jtl        1       2       100
X2      sfq_jtl4        2       3       100
.ends

* delay: 21.6 ps
.subckt sfq_jtl6       1       3       100
X1      sfq_jtl4        1       2       100
X2      sfq_jtl2        2       3       100
.ends

* delay: 23.4 ps
.subckt sfq_3jtl_jtl5   1       3       100
X1      sfq_3jtl        1       2       100
X2      sfq_jtl5        2       3       100
.ends

* delay: 25.2 ps
.subckt sfq_jtl7        1       3       100
X1      sfq_jtl4        1       2       100
X2      sfq_jtl3        2       3       100
.ends

* delay: 28.8 ps
.subckt sfq_jtl8        1       3       100
X1      sfq_jtl4        1       2       100
X2      sfq_jtl4        2       3       100
.ends

.subckt sfq_jtl9        1       3       100
X1      sfq_jtl8        1       2       100
X2      sfq_jtl         2       3       100
.ends

.subckt sfq_jtl10       1       3       100
X1      sfq_jtl8        1       2       100
X2      sfq_jtl2        2       3       100
.ends

.subckt sfq_jtl11       1       3       100
X1      sfq_jtl8        1       2       100
X2      sfq_jtl3        2       3       100
.ends

.subckt sfq_jtl12       1       3       100
X1      sfq_jtl8        1       2       100
X2      sfq_jtl4        2       3       100
.ends

.subckt sfq_jtl13       1       3       100
X1      sfq_jtl8        1       2       100
X2      sfq_jtl5        2       3       100
.ends

.subckt sfq_jtl14       1       3       100
X1      sfq_jtl8        1       2       100
X2      sfq_jtl6        2       3       100
.ends

.subckt sfq_jtl15       1       3       100
X1      sfq_jtl8        1       2       100
X2      sfq_jtl7        2       3       100
.ends

.subckt sfq_jtl16       1       3       100
X1      sfq_jtl8        1       2       100
X2      sfq_jtl8        2       3       100
.ends

.subckt sfq_jtl17       1       4       100
X1      sfq_jtl8        1       2       100
X2      sfq_jtl8        2       3       100
X3      sfq_jtl         3       4       100
.ends

.subckt sfq_jtl18       1       4       100
X1      sfq_jtl8        1       2       100
X2      sfq_jtl8        2       3       100
X3      sfq_jtl2        3       4       100
.ends

.subckt sfq_jtl19       1       4       100
X1      sfq_jtl8        1       2       100
X2      sfq_jtl8        2       3       100
X3      sfq_jtl3        3       4       100
.ends

.subckt sfq_jtl20       1       4       100
X1      sfq_jtl8        1       2       100
X2      sfq_jtl8        2       3       100
X3      sfq_jtl4        3       4       100
.ends

.subckt sfq_jtl24       1       4       100
X1      sfq_jtl8        1       2       100
X2      sfq_jtl8        2       3       100
X3      sfq_jtl8        3       4       100
.ends

.subckt sfq_jtl28       1       5       100
X1      sfq_jtl8        1       2       100
X2      sfq_jtl8        2       3       100
X3      sfq_jtl8        3       4       100
X4      sfq_jtl4        4       5       100
.ends

.subckt sfq_jtl32       1       5       100
X1      sfq_jtl8        1       2       100
X2      sfq_jtl8        2       3       100
X3      sfq_jtl8        3       4       100
X4      sfq_jtl8        4       5       100
.ends

.subckt sfq_jtl36       1       5       100
X1      sfq_jtl12       1       2       100
X2      sfq_jtl8        2       3       100
X3      sfq_jtl8        3       4       100
X4      sfq_jtl8        4       5       100
.ends

.subckt sfq_jtl40       1       5       100
X1      sfq_jtl12       1       2       100
X2      sfq_jtl12       2       3       100
X3      sfq_jtl8        3       4       100
X4      sfq_jtl8        4       5       100
.ends

.subckt sfq_jtl44       1       5       100
X1      sfq_jtl12       1       2       100
X2      sfq_jtl12       2       3       100
X3      sfq_jtl12       3       4       100
X4      sfq_jtl8        4       5       100
.ends

.subckt sfq_jtl48       1       5       100
X1      sfq_jtl12       1       2       100
X2      sfq_jtl12       2       3       100
X3      sfq_jtl12       3       4       100
X4      sfq_jtl12       4       5       100
.ends
** + ---------------------------------- +

** + -------------------- +
** |     SFQ SPL          |
** + -------------------- +
** ADP2 2.5mV (betac=2)
** din (1), out1 (7), out2 (9), bias (100)
.subckt sfq_spl 1 7 9 100
LPIN                    1       2       0.38pH fcheck
L1                      2       3       2.215pH fcheck
L6                      3       4       0.504pH fcheck
L2                      4       6       4.707pH fcheck
L4                      6       7       1.708pH fcheck
L3                      4       8       4.857pH fcheck
L5                      8       9       1.682pH fcheck

LPR1                    2       10      0.156pH fcheck
R1                      10      100     8.32ohm
B1                      3       11      jjmod area=2.15
RS1                     3       11      5.249ohm
LP1                     11      0       0.138pH fcheck

B2                      6       12      jjmod area=1.94
RS2                     6       12      5.818ohm
LP2                     12      0       0.127pH fcheck

B3                      8       13      jjmod area=1.94
RS3                     8       13      5.818ohm
LP3                     13      0       0.125pH fcheck
.ends

.subckt balanced_spl 1 7 9 100
LPIN                    1       2       0.38pH fcheck
L1                      2       3       2.215pH fcheck
L6                      3       4       0.504pH fcheck
L2                      4       6       4.707pH fcheck
L4                      6       7       1.708pH fcheck
L3                      4       8       4.857pH fcheck
L5                      8       9       1.682pH fcheck

LPR1                    2       10      0.156pH fcheck
R1                      10      100     8.32ohm
B1                      3       11      jjmod area=2.15
RS1                     3       11      5.249ohm
LP1                     11      0       0.138pH fcheck

B2                      6       12      jjmod area=1.94
RS2                     6       12      5.818ohm
LP2                     12      0       0.127pH fcheck

R2                      8       100     15.5ohm
B3                      8       13      jjmod area=1.94
RS3                     8       13      5.818ohm
LP3                     13      0       0.125pH fcheck
.ends
** + ---------------------------------- +

** + -------------------- +
** |     SFQ CBE          |
** + -------------------- +
** ADP2 2.5mV (betac=2)
** din1 (1), din2 (10), out (20), bias (100)
.subckt sfq_cbe         1       10      20       100
LPIN1                   1       2       0.354pH fcheck
L8                      2       3       2.467pH fcheck
L1                      3       4       3.624pH fcheck
L5                      4       5       1.144pH fcheck
B3                      5       6       jjmod area=1.82
RS3                     5       6       6.201ohm
LPR2                    2       7       0.174pH fcheck 
R2                      7       100     8.34ohm
B6                      3       8       jjmod area=2.16
RS6                     3       8       5.225ohm
LP6                     8       0       0.109pH fcheck
B1                      4       9       jjmod area=2.16
RS1                     4       9       5.225ohm
LP1                     9       0       0.276pH fcheck

LPIN2                   10      11      0.403pH fcheck
L9                      11      12      2.488pH fcheck
L2                      12      13      3.619pH fcheck
L6                      13      14      1.154pH fcheck
B4                      14      6       jjmod area=1.82
RS4                     14      6       6.201ohm
LPR3                    11      15      0.187pH fcheck
R3                      15      100     8.34ohm
B7                      12      16      jjmod area=2.16
RS7                     12      16      5.225ohm
LP7                     16      0       0.12pH fcheck
B2                      13      17      jjmod area=2.16
RS2                     13      17      5.225ohm
LP2                     17      0       0.268pH fcheck

L7                      6       18      0.494pH fcheck
L3                      18      19      4.186pH fcheck
L4                      19      20      1.277pH fcheck
LPR1                    18      21      0.018pH fcheck
R1                      21      100     9.0ohm
B5                      19      22      jjmod area=2.70
RS5                     19      22      4.18ohm
LP5                     22      0       0.343pH fcheck
.ends
** + ---------------------------------- +

** + -------------------- +
** |     SFQ TFF          |
** + -------------------- +
** HSTP 2.5mV (betac=2)
** din (1), outA (10), outB (16), bias (100)
.subckt sfq_tff 1 10 16 100
LPIN                    1       2       0.476pH fcheck
LPR1                    2       31      0.363pH fcheck
R1                      31      100     8.33ohm
L1                      2       3       2.241pH fcheck
B1                      3       21      jjmod area=2.16
RS1                     3       21      5.225ohm
LP1                     21      0       0.304pH fcheck
L2                      3       4       1.069pH fcheck

L3                      4       5       1.867pH fcheck
B2                      5       6       jjmod area=2.2
RS2                     5       6       5.13ohm
B4                      6       24      jjmod area=1.082
RS4                     6       24      10.43ohm
LP4                     24      0       0.247pH fcheck
L12                     6       7       0.101pH fcheck
L7                      7       8       0.679pH fcheck
LPR2                    8       32      0.445pH fcheck
R2                      32      100     16.66ohm
L8                      8       9       2.392pH fcheck
B6                      9       27      jjmod area=2.16
RS6                     9       27      5.225ohm
LP6                     27      0       0.234pH fcheck
L10                     9       10      1.365pH fcheck

L5                      7       11      3.208pH fcheck
LP8                     11      28      0.294pH fcheck
RD                      28      0       2.0ohm
L6                      11      14      3.115pH fcheck 

L4                      4       12      1.911pH fcheck
B3                      12      13      jjmod area=1.3
RS3                     12      13      8.682ohm
B5                      13      25      jjmod area=1.96
RS5                     13      25      5.758ohm
LP5                     25      0       0.185pH fcheck
L13                     13      14      0.177pH fcheck
L9                      14      15      4.222pH fcheck
B7                      15      27      jjmod area=2.16
RS7                     15      27      5.225ohm
LP7                     27      0       0.174pH fcheck
L11                     15      16      2.09pH fcheck
.ends
** + ---------------------------------- +

** + -------------------- +
** |     SFQ RTFF         |
** + -------------------- +
** HSTP RTFFb03 2.5mV (betac=2)
** rst (1), din (8), outA (10), outB (16), bias (100)
.subckt sfq_rtff 1 8 17 24 100
LPIN1                   1       2       0.356pH fcheck
LPR1                    2       31      0.172pH fcheck
R1                      31      100     8.34ohm
L8                      2       3       2.527pH fcheck
B11                     3       32      jjmod area=2.16
RS11                    3       32      5.225ohm
LP11                    32      0       0.138pH fcheck
L4                      3       4       4.215pH fcheck
B8                      4       5       jjmod area=1.32
RS8                     4       5       8.56ohm
B9                      5       33      jjmod area=1.20
RS9                     5       33      9.416ohm
LP9                     33      0       1.022pH fcheck
B7                      5       6       jjmod area=1.10
RS7                     5       6       10.273ohm
LEX4                    6       19      1.693pH fcheck

LPIN2                   8       9       0.322pH fcheck
LPR2                    9       34      0.166pH fcheck
R2                      34      100     8.35ohm
L1                      9       10      1.945pH fcheck
B3                      10      35      jjmod area=2.04
RS3                     10      35      5.539ohm
LP3                     35      0       0.135pH fcheck
LEX2                    10      11      1.113pH fcheck
LEX1                    11      12      1.269pH fcheck
B2                      12      13      jjmod area=1.38
RS2                     12      13      8.188ohm
LX2                     13      14      0.824pH fcheck
LPR3                    14      36      0.008pH fcheck
R3                      36      100     11.94ohm
L10                     14      15      4.477pH fcheck
B12                     15      37      jjmod area=1.00
RS12                    15      37      11.3ohm
LP12                    37      0       0.166pH fcheck
L5                      15      16      5.091pH fcheck
B13                     16      38      jjmod area=2.00
RS13                    16      38      5.65ohm
LP13                    38      0       0.122pH fcheck
L9                      16      17      1.849pH fcheck

L2                      11      7       3.026pH fcheck
B5                      7       21      jjmod area=1.05
RS5                     7       21      10.762ohm

LX1                     13      18      1.284pH fcheck
B1                      18      39      jjmod area=1.00
RS1                     18      39      11.3ohm
LP1                     39      0       0.177pH fcheck
L3                      18      19      5.546pH fcheck
LEX3                    19      20      1.134pH fcheck
B6                      20      21      jjmod area=1.32
RS6                     20      21      8.56ohm
LX3                     21      22      1.004pH fcheck
B4                      22      40      jjmod area=1.00
RS4                     22      40      11.3ohm
LP4                     40      0       0.182pH fcheck
L6                      22      23      5.426pH fcheck
B10                     23      41      jjmod area=2.00
RS10                    23      41      5.65ohm
LP10                    41      0       0.125pH fcheck
L7                      23      24      2.09pH fcheck
.ends
** + ---------------------------------- +

*** rtffrh
.subckt rtffrh         18        130        131        99
***       din     dout1     reset
R1                99        25   8.34ohm *FIX
R3                99        37  28.20ohm
R2                99       109   8.34ohm *FIX
LP9              127         0   1.526pH fcheck *FIX
LP11              58         0   0.281pH fcheck
LP10               0       132   0.510pH fcheck
LP4                0       133   0.320pH fcheck
LP3                0       134   0.278pH fcheck
LPIN1            131        84   0.650pH fcheck
LPR1              84        25   5.923pH fcheck
L7                84        60   2.361pH fcheck *MIN=  2.000 *MAX=  2.500
L4               135        60   2.436pH fcheck
L6               105       130   1.737pH fcheck *MIN=  1.400 *MAX=  2.000
L5                81       105   5.366pH fcheck
LX2              136        81   1.953pH fcheck *MIN=  1.500 *MAX=  2.000
LEX4             114       137   1.594pH fcheck *FIX
L3               124       114   4.615pH fcheck
LEX3             138       114   1.183pH fcheck *FIX
LP1              139         0   0.367pH fcheck
LX1              140       124   1.342pH fcheck *FIX
LPR3              37       140   0.086pH fcheck
LEX1              95       141   1.355pH fcheck *FIX
LEX2              95       142   0.276pH fcheck
L2               143        95   2.345pH fcheck
LPR2             144       109   5.262pH fcheck
LPIN2             18       144   0.601pH fcheck
L1               144       143   2.220pH fcheck *MIN=  2.000 *MAX=  2.500
B11               60        58  jjmod area=2.07
*MIN=  1.960 *MAX=  2.160
RS11              60        58   5.45ohm *SHUNT=11.30
B8               135       145  jjmod area=1.21
RS8              135       145   9.34ohm *SHUNT=11.30
B9               145       127  jjmod area=1.04
RS9              145       127  10.87ohm *SHUNT=11.30
B10              105       132  jjmod area=2.02
*MIN=  1.960 *MAX=  2.160
RS10             105       132   5.61ohm *SHUNT=11.30
B3               143       134  jjmod area=2.02
*MIN=  1.960 *MAX=  2.160
RS3              143       134   5.61ohm *SHUNT=11.30
B7               137       145  jjmod area=1.00
RS7              137       145  11.30ohm *SHUNT=11.30
B5               142       136  jjmod area=1.08
RS5              142       136  10.44ohm *SHUNT=11.30
B1               124       139  jjmod area=1.00
RS1              124       139  11.30ohm *SHUNT=11.30
B6               138       136  jjmod area=1.39
RS6              138       136   8.12ohm *SHUNT=11.30
B2               141       140  jjmod area=1.08
RS2              141       140  10.44ohm *SHUNT=11.30
B4                81       133  jjmod area=1.00
RS4               81       133  11.30ohm *SHUNT=11.30
.ends

** + -------------------- +
** |     SFQ DFF          |
** + -------------------- +
** ADP2 2.5mV (betac=2)
** clk (21), din (1), out (9), bias (100)
.subckt sfq_dff 1 21 9 100
LPIN                    21      2       0.328pH fcheck
L7                      2       3       2.756pH fcheck
L5                      3       4       4.508pH fcheck
L2                      4       5       1.508pH fcheck
L3                      5       6       6.373pH fcheck
L9                      6       7       0.042pH fcheck
L4                      7       8       4.641pH fcheck
L8                      8       9       2.405pH fcheck
LPR2                    2       10      0.156pH fcheck
R2                      10      100     8.32ohm
B2                      3       11      jjmod area=2.16
RS2                     3       11      5.225ohm
LP2                     11      0       0.094pH fcheck
B3                      4       12      jjmod area=2.34
RS3                     4       12      4.829ohm
LP3                     12      0       0.104pH fcheck
LPR1                    5       13      0.104pH fcheck
R1                      13      100     21.44ohm
B4                      7       14      jjmod area=1.69
RS4                     7       14      6.686ohm
LP4                     14      0       0.276pH fcheck
B6                      8       15      jjmod area=2.25
RS6                     8       15      5.022ohm
LP6                     15      0       0.127pH fcheck

LPCLK                   1       22      0.361pH fcheck
L6                      22      23      2.535pH fcheck
L1                      23      24      3.302pH fcheck
B1                      24      6       jjmod area=1.63
RS1                     24      6       6.933ohm
LPR3                    22      25      0.159pH fcheck
R3                      25      100     8.32ohm
B5                      23      26      jjmod area=2.16
RS5                     23      26      5.225ohm
LP5                     26      0       0.096pH fcheck
.ends
** + ---------------------------------- +

** + -------------------- +
** |     SFQ RDFF         |
** + -------------------- +
** ADP2 2.5mV (betac=2)
** clk (1), din (21), rst (31), out (12), bias (100)
.subckt sfq_rdff 1 21 31 12 100
LPCLK                   1       2       0.372pH fcheck
L4                      2       3       2.597pH fcheck
L6                      3       4       2.842pH fcheck
B5                      4       5       jjmod area=1.84
RS5                     4       5       6.1336ohm
LPR2                    2       6       0.244pH fcheck
R2                      6       100     8.33ohm
B3                      3       7       jjmod area=2.16
RS3                     3       7       5.225ohm
LP3                     7       0       0.13pH fcheck

L10                     5       10      0.023pH fcheck
L11                     10      11      4.581pH fcheck
L12                     11      12      2.226pH fcheck
B10                     10      13      jjmod area=1.10
RS10                    10      13      10.26ohm
LP10                    13      0       0.198pH fcheck
B11                     11      14      jjmod area=2.16
RS11                    11      14      5.225ohm
LP11                    14      0       0.117pH fcheck

LPDIN                   21      22      0.288pH fcheck
L1                      22      23      2.662pH fcheck
L2                      23      24      4.242pH fcheck
L3                      24      25      3.154pH fcheck
B7                      25      26      jjmod area=1.56
RS7                     25      26      7.2345ohm
L8                      26      5       1.854pH fcheck
LPR1                    22      29      0.229pH fcheck
R1                      29      100     8.33ohm
B1                      23      27      jjmod area=2.16
RS1                     23      27      5.225ohm
LP1                     27      0       0.101pH fcheck
B2                      24      28      jjmod area=1.26
RS2                     24      28      8.957ohm
LP2                     28      0       0.148pH fcheck

LPRESET                 31      32      0.45pH fcheck
L5                      32      33      2.738pH fcheck
L7                      33      34      2.746pH fcheck
B6                      34      35      jjmod area=1.84
RS6                     34      35      6.1336ohm
L9                      35      36      1.966pH fcheck
B8                      36      25      jjmod area=1.56
RS8                     36      25      7.2345ohm
LPR3                    32      39      0.218pH fcheck
R3                      39      100     8.33ohm
B4                      33      37      jjmod area=2.16
RS4                     33      37      5.225ohm
LP4                     37      0       0.127pH fcheck
B9                      35      38      jjmod area=1.70
RS9                     35      38      6.6387ohm                      
LP9                     38      0       0.156pH fcheck
.ends
** + ---------------------------------- +

** + -------------------- +
** |     SFQ NDRO         |
** + -------------------- +
** ADP2 2.5mV (betac=2)
** clk (1), rst (16), din (24), dout (8), bias (100)
.subckt sfq_ndro 1 16 24 8 100
LPCLK                   1       2       0.216pH fcheck
L1                      2       3       2.148pH fcheck
B2                      3       4       jjmod area=1.62
RS2                     3       4       6.967ohm
L2                      4       5       2.967pH fcheck
L13                     5       6       0.918pH fcheck
L11                     6       7       5.338pH fcheck
L12                     7       8       2.062pH fcheck

LPR1                    2       9       0.198pH fcheck
RB1                     9       100     8.34ohm
B1                      3       10      jjmod area=2.10